@<TRIPOS>MOLECULE
NAP
   76    88     1     0     0
SMALL
rc


@<TRIPOS>ATOM
      1 PA          -0.0350    -0.9720     0.7190 p5         0 NAP       1.650461
      2 O1A          0.4900    -0.2560     1.9030 o          0 NAP      -0.787157
      3 O2A         -0.7250    -2.3490     1.1870 oh         0 NAP      -0.817363
      4 O5B         -1.1260    -0.0510    -0.0260 os         0 NAP      -0.606975
      5 C5B         -2.1090     0.2970     0.9520 c3         0 NAP       0.061743
      6 C4B         -3.1810     1.1770     0.3070 c3         0 NAP       0.314611
      7 O4B         -3.9200     0.4160    -0.6630 os         0 NAP      -0.571209
      8 C3B         -4.1810     1.6550     1.3770 c3         0 NAP       0.202330
      9 O3B         -4.1960     3.0820     1.4560 oh         0 NAP      -0.773273
     10 C2B         -5.5500     1.1240     0.8760 c3         0 NAP       0.236022
     11 O2B         -6.5760     2.0990     1.0710 os         0 NAP      -0.646947
     12 C1B         -5.2790     0.9010    -0.6330 c3         0 NAP       0.328292
     13 N9A         -6.1960    -0.1010    -1.1830 n3         0 NAP      -0.333201
     14 C8A         -5.9780    -1.4450    -1.2490 c3         0 NAP       0.428368
     15 N7A         -7.0000    -2.0360    -1.7950 n3         0 NAP      -0.633345
     16 C5A         -7.9380    -1.1110    -2.1140 c3         0 NAP      -0.082518
     17 C6A         -9.2100    -1.1580    -2.7080 c3         0 NAP       0.875680
     18 N6A         -9.7590    -2.3630    -3.1120 n3         0 NAP      -0.982335
     19 N1A         -9.8740    -0.0190    -2.8740 n3         0 NAP      -0.793848
     20 C2A         -9.3580     1.1350    -2.4920 c3         0 NAP       0.527551
     21 N3A         -8.1710     1.2270    -1.9310 n3         0 NAP      -0.706058
     22 C4A         -7.4350     0.1410    -1.7200 c3         0 NAP       0.483084
     23 O3           1.1750    -1.2940    -0.2930 os         0 NAP      -0.697743
     24 PN           2.3900    -1.8580     0.5990 p5         0 NAP       1.573353
     25 O1N          2.1420    -3.3480     0.9250 o          0 NAP      -0.830006
     26 O2N          2.4810    -1.0510     1.9140 o          0 NAP      -0.830006
     27 O5D          3.7700    -1.7100    -0.2180 os         0 NAP      -0.555894
     28 C5D          4.8180    -2.1140     0.6650 c3         0 NAP       0.168698
     29 C4D          6.1640    -1.9970    -0.0530 c3         0 NAP       0.033069
     30 O4D          6.4660    -0.6130    -0.3320 os         0 NAP      -0.413432
     31 C3D          7.3100    -2.4740     0.8660 c3         0 NAP       0.282890
     32 O3D          7.6700    -3.8220     0.5590 oh         0 NAP      -0.732462
     33 C2D          8.4780    -1.5130     0.5400 c3         0 NAP       0.224024
     34 O2D          9.5950    -2.2390     0.0250 oh         0 NAP      -0.765001
     35 C1D          7.8950    -0.5680    -0.5340 c3         0 NAP       0.114890
     36 N1N          8.3950     0.7950    -0.3410 n4         0 NAP       0.113016
     37 C2N          9.3640     1.2370    -1.1160 c3         0 NAP      -0.072784
     38 C3N          9.8690     2.5270    -0.9550 c3         0 NAP      -0.145432
     39 C7N         10.9610     3.0210    -1.8200 c3         0 NAP       0.937119
     40 O7N         11.4300     2.2990    -2.6780 os         0 NAP      -0.651696
     41 N7N         11.4370     4.2720    -1.6580 n3         0 NAP      -1.072938
     42 C4N          9.3200     3.3490     0.0370 c3         0 NAP       0.007887
     43 C5N          8.3000     2.8400     0.8210 c3         0 NAP      -0.240070
     44 C6N          7.8590     1.5470     0.6010 c3         0 NAP       0.009284
     45 P2B         -7.7650     1.3700     1.8750 p5         0 NAP       1.641116
     46 O1X         -7.2260     0.7740     3.1190 o          0 NAP      -0.815314
     47 O2X         -8.9030     2.4470     2.2460 oh         0 NAP      -0.781269
     48 O3X         -8.4020     0.2110     0.9570 oh         0 NAP      -0.781269
     49 HOA2        -1.0530    -2.7830     0.3870 ho         0 NAP       0.546352
     50 H51A        -2.5700    -0.6100     1.3430 h1         0 NAP       0.104038
     51 H52A        -1.6330     0.8430     1.7670 h1         0 NAP       0.104038
     52 H4B         -2.7140     2.0370    -0.1750 h1         0 NAP       0.094300
     53 H3B         -3.9360     1.2230     2.3470 h1         0 NAP       0.035024
     54 HO3A        -3.3230     3.3530     1.7720 ho         0 NAP       0.512300
     55 H2B         -5.8090     0.1860     1.3680 h1         0 NAP       0.033472
     56 H1B         -5.3640     1.8390    -1.1820 h2         0 NAP       0.104468
     57 H8A         -5.0870    -1.9460    -0.8990 h3         0 NAP       0.112776
     58 H61A        -9.2650    -3.1870    -2.9850 hn         0 NAP       0.436204
     59 H62A       -10.6380    -2.3820    -3.5210 hn         0 NAP       0.436204
     60 H2A         -9.9320     2.0370    -2.6460 h3         0 NAP       0.091112
     61 H51N         4.6580    -3.1480     0.9700 h1         0 NAP       0.052514
     62 H52N         4.8190    -1.4720     1.5460 h1         0 NAP       0.052514
     63 H4D          6.1520    -2.5770    -0.9760 h1         0 NAP       0.162508
     64 H3D          7.0220    -2.3850     1.9130 h1         0 NAP       0.026303
     65 HO3N         8.3870    -4.0640     1.1620 ho         0 NAP       0.479148
     66 H2D          8.7660    -0.9480     1.4270 h1         0 NAP       0.092714
     67 HO2N         9.8740    -2.8520     0.7190 ho         0 NAP       0.480000
     68 H1D          8.1490    -0.9270    -1.5320 hx         0 NAP       0.168637
     69 H2N          9.7780     0.5910    -1.8760 hx         0 NAP       0.228111
     70 H71N        12.1530     4.5950    -2.2260 hn         0 NAP       0.451852
     71 H72N        11.0600     4.8490    -0.9760 hn         0 NAP       0.451852
     72 H4N          9.6840     4.3550     0.1870 hc         0 NAP       0.202024
     73 H5N          7.8530     3.4450     1.5960 hc         0 NAP       0.205943
     74 H6N          7.0630     1.1460     1.2110 hx         0 NAP       0.237210
     75 HOP2        -9.5940     1.9700     2.7250 ho         0 NAP       0.502219
     76 HOP3        -8.7400     0.6400     0.1600 ho         0 NAP       0.502219
@<TRIPOS>BOND
     1     1     2 2   
     2     1     3 1   
     3     1     4 1   
     4     1    23 1   
     5     3    49 1   
     6     4     5 1   
     7     5     6 1   
     8     5    50 1   
     9     5    51 1   
    10     6     7 1   
    11     6     8 1   
    12     6    52 1   
    13     7    12 1   
    14     8     9 1   
    15     8    10 1   
    16     8    53 1   
    17     9    54 1   
    18    10    11 1   
    19    10    12 1   
    20    10    55 1   
    21    11    45 1   
    22    12    13 1   
    23    12    56 1   
    24    13    14 1   
    25    13    22 1   
    26    14    15 1   
    27    14    15 1   
    28    14    57 1   
    29    15    16 1   
    30    16    17 1   
    31    16    22 1   
    32    16    22 1   
    33    17    18 1   
    34    17    19 1   
    35    17    19 1   
    36    18    58 1   
    37    18    59 1   
    38    19    20 1   
    39    20    21 1   
    40    20    21 1   
    41    20    60 1   
    42    21    22 1   
    43    23    24 1   
    44    24    25 1   
    45    24    26 1   
    46    24    27 1   
    47    27    28 1   
    48    28    29 1   
    49    28    61 1   
    50    28    62 1   
    51    29    30 1   
    52    29    31 1   
    53    29    63 1   
    54    30    35 1   
    55    31    32 1   
    56    31    33 1   
    57    31    64 1   
    58    32    65 1   
    59    33    34 1   
    60    33    35 1   
    61    33    66 1   
    62    34    67 1   
    63    35    36 1   
    64    35    68 1   
    65    36    37 1   
    66    36    44 1   
    67    36    44 1   
    68    37    38 1   
    69    37    38 1   
    70    37    69 1   
    71    38    39 1   
    72    38    42 1   
    73    39    40 1   
    74    39    40 1   
    75    39    41 1   
    76    41    70 1   
    77    41    71 1   
    78    42    43 1   
    79    42    43 1   
    80    42    72 1   
    81    43    44 1   
    82    43    73 1   
    83    44    74 1   
    84    45    46 2   
    85    45    47 1   
    86    45    48 1   
    87    47    75 1   
    88    48    76 1   
@<TRIPOS>SUBSTRUCTURE
     1 NAP         1 TEMP              0 ****  ****    0 ROOT
